LAMMPS (7 Feb 2024 - Update 1)
# LAMMPS test script

units           real
atom_style      full
boundary        p p p

pair_style      lj/cut 12.0
pair_modify     tail no mix arithmetic shift yes
neigh_modify    every 1 delay 0 check yes

# user variables
variable        pre        equal 1.0
variable        tem        equal 300.0
variable        dt         equal 1.0
variable        pdamp      equal 1000*1
variable        tdamp      equal 100*1
variable        mol        equal 10         # methane per unit cell

# read in your base system
read_data       in.data extra/atom/types 1 extra/special/per/atom 1
Reading data file ...
  orthogonal box = (0 0 0) to (40.044 39.798 26.766)
  reading atoms ...
  2304 atoms
Finding 1-2 1-3 1-4 neighbors ...
     0 = max # of 1-2 neighbors
     0 = max # of 1-3 neighbors
     0 = max # of 1-4 neighbors
     2 = max # of special neighbors
include         in.coeffs
mass 3 16.04

# Pair coefficients (self pairs)
pair_coeff    1   1   0.04372   2.30  # is Si-Si
pair_coeff    2   2   0.10532   3.30  # is O-O
pair_coeff    3   3   0.29410   3.73  # is CH3-CH3
molecule        methane methane_ua.dat
Read molecule template methane:
# Methane molecule. TraPPE (UA) geometry.
  1 molecules
  0 fragments
  1 atoms with max type 3
  0 bonds with max type 0
  0 angles with max type 0
  0 dihedrals with max type 0
  0 impropers with max type 0

#----------------------------------------------------------#
# 1) Insert & equilibrate methane
#----------------------------------------------------------#
variable        ssmol equal 8*v_mol
create_atoms    0 random 80 23847 NULL mol methane 345628 overlap 2.0 maxtry 10000
Created 80 atoms

group           methane type 3
80 atoms in group methane
group           fwork   type 1:2
2304 atoms in group fwork

compute         wtemp methane temp
timestep        1

velocity        methane create 300 57823
fix             equilibration methane nvt temp 300 300 100
thermo          1000
thermo_style    custom step c_wtemp ke pe press vol epair density
run             50000
Generated 3 of 3 mixed pair_coeff terms from arithmetic mixing rule
Step        c_wtemp         KinEng         PotEng         Press          Volume         E_pair        Density
0   300            70.645198      787468.14      5184235.4      42656.201      787468.14      1.8462953
Averages over the last 26 of 51 rows, steps 25000 to 50000:
c_wtemp KinEng PotEng Press Volume E_pair Density
291.478 68.6385 765916 5.04123e+06 42656.2 765916 1.8463
Loop time of 26.9637 on 28 procs for 50000 steps with 2384 atoms

unfix           equilibration

#----------------------------------------------------------#
# 2) Diffusion via VACF (3D, real units)
#----------------------------------------------------------#
reset_timestep  0

# compute VACF of methane (3D, subtract COM drift)
compute         vacf_methane methane vacf yes

# accumulate VACF into a vector for trapezoidal integration
fix             vacfvec methane vector 1 c_vacf_methane[4]

# atom‐style dump every 1000 steps
dump            myDump all atom 1000 methane_diffusion_atm.lammpstrj
dump_modify     myDump sort id

# run under NVE
fix             production methane nve

# define diffusion coefficient: D = (1/3)*∫ C_vv(t) dt
variable        D_vacf equal (1.0/3.0)*1*trap(f_vacfvec)

# print VACF[4] and D_vacf every 1000 steps
thermo_style    custom step temp c_vacf_methane[4] v_D_vacf
thermo          1000
run             100000
Generated 3 of 3 mixed pair_coeff terms from arithmetic mixing rule
Step          Temp      c_vacf_methane[4]    v_D_vacf
0   8.6097374      3.9881875e-05  0
Averages over the last 51 of 101 rows, steps 50000 to 100000:
Temp c_vacf_methane[4] v_D_vacf
9.51319 -1.45344e-08 0.00132702
Loop time of 54.3481 on 28 procs for 100000 steps with 2384 atoms

# print final D
Diffusion coefficient (from VACF) = 0.00100104212933094 [A^2/fs]

# cleanup
unfix           vacfvec
unfix           production
undump          myDump
